<?xml version="1.0" encoding="UTF-8"?>

<!-- generated on 2022-08-13 15:40:18 by Eclipse SUMO od2trips Version 1.14.1
<configuration xmlns:xsi="http://www.w3.org/2001/XMLSchema-instance" xsi:noNamespaceSchemaLocation="http://sumo.dlr.de/xsd/od2tripsConfiguration.xsd">

    <input>
        <taz-files value="test.taz.xml"/>
        <od-matrix-files value="freiham_morning.od,freiham_afternoon.od"/>
    </input>

    <output>
        <output-file value="odtest.rou.xml"/>
    </output>

</configuration>
-->

<routes xmlns:xsi="http://www.w3.org/2001/XMLSchema-instance" xsi:noNamespaceSchemaLocation="http://sumo.dlr.de/xsd/routes_file.xsd">
    <trip id="2254" depart="3.69" from="-E65" to="134693374#0" fromTaz="fh_living" toTaz="munich" departLane="free" departSpeed="max"/>
    <trip id="7004" depart="12.43" from="55717665" to="E71" fromTaz="mw_a99_in" toTaz="fh_living" departLane="free" departSpeed="max"/>
    <trip id="752" depart="36.64" from="-E51" to="-30240188" fromTaz="fh_living" toTaz="germering" departLane="free" departSpeed="max"/>
    <trip id="4225" depart="38.56" from="E51" to="289441726" fromTaz="fh_living" toTaz="mw_a96_out_out" departLane="free" departSpeed="max"/>
    <trip id="2704" depart="44.72" from="E71" to="1061284895#2" fromTaz="fh_living" toTaz="munich" departLane="free" departSpeed="max"/>
    <trip id="1286" depart="44.99" from="E74" to="-384524948#0" fromTaz="fh_living" toTaz="martinsried" departLane="free" departSpeed="max"/>
    <trip id="3383" depart="71.75" from="E65" to="289444419" fromTaz="fh_living" toTaz="mw_a96_in_in" departLane="free" departSpeed="max"/>
    <trip id="1345" depart="73.44" from="E45" to="134693374#0" fromTaz="fh_living" toTaz="munich" departLane="free" departSpeed="max"/>
    <trip id="2328" depart="74.54" from="E44" to="479885266" fromTaz="fh_living" toTaz="munich" departLane="free" departSpeed="max"/>
    <trip id="449" depart="91.39" from="-E43" to="504569020#1" fromTaz="fh_living" toTaz="fh_education" departLane="free" departSpeed="max"/>
    <trip id="1739" depart="103.47" from="E52" to="1061284895#2" fromTaz="fh_living" toTaz="munich" departLane="free" departSpeed="max"/>
    <trip id="6240" depart="115.31" from="1061284895#2" to="-E72" fromTaz="munich" toTaz="fh_living" departLane="free" departSpeed="max"/>
    <trip id="931" depart="125.00" from="E45" to="-30240188" fromTaz="fh_living" toTaz="germering" departLane="free" departSpeed="max"/>
    <trip id="7514" depart="128.24" from="317240329" to="E69" fromTaz="p_trainstation" toTaz="fh_living" departLane="free" departSpeed="max"/>
    <trip id="3477" depart="133.83" from="-504569022" to="289444419" fromTaz="fh_living" toTaz="mw_a96_in_in" departLane="free" departSpeed="max"/>
    <trip id="6757" depart="134.85" from="327070358" to="E73" fromTaz="mw_a96_out_in" toTaz="fh_living" departLane="free" departSpeed="max"/>
    <trip id="3501" depart="135.77" from="E48" to="289444419" fromTaz="fh_living" toTaz="mw_a96_in_in" departLane="free" departSpeed="max"/>
    <trip id="6522" depart="138.70" from="2597456" to="E44" fromTaz="mw_a96_in_out" toTaz="fh_living" departLane="free" departSpeed="max"/>
    <trip id="4689" depart="139.94" from="E65" to="541602725" fromTaz="fh_living" toTaz="mw_a99_out" departLane="free" departSpeed="max"/>
    <trip id="5826" depart="142.20" from="-384524948#0" to="-E69" fromTaz="martinsried" toTaz="fh_living" departLane="free" departSpeed="max"/>
    <trip id="33" depart="158.69" from="504569020#1" to="-504569022" fromTaz="fh_education" toTaz="fh_living" departLane="free" departSpeed="max"/>
    <trip id="2571" depart="163.83" from="-E45" to="-38076570#1" fromTaz="fh_living" toTaz="munich" departLane="free" departSpeed="max"/>
    <trip id="1554" depart="175.40" from="-E49" to="-38076570#1" fromTaz="fh_living" toTaz="munich" departLane="free" departSpeed="max"/>
    <trip id="7145" depart="179.15" from="55717665" to="-E43" fromTaz="mw_a99_in" toTaz="fh_living" departLane="free" departSpeed="max"/>
    <trip id="2989" depart="191.17" from="-E47" to="289444419" fromTaz="fh_living" toTaz="mw_a96_in_in" departLane="free" departSpeed="max"/>
    <trip id="7628" depart="191.50" from="317240329" to="-E70" fromTaz="p_trainstation" toTaz="fh_living" departLane="free" departSpeed="max"/>
    <trip id="3799" depart="199.30" from="-E51" to="289444419" fromTaz="fh_living" toTaz="mw_a96_in_in" departLane="free" departSpeed="max"/>
    <trip id="4205" depart="199.97" from="-E47" to="289441726" fromTaz="fh_living" toTaz="mw_a96_out_out" departLane="free" departSpeed="max"/>
    <trip id="5761" depart="200.13" from="-30240188" to="E45" fromTaz="germering" toTaz="fh_living" departLane="free" departSpeed="max"/>
    <trip id="945" depart="200.40" from="E71" to="-30240188" fromTaz="fh_living" toTaz="germering" departLane="free" departSpeed="max"/>
    <trip id="1831" depart="201.72" from="-E44" to="1061284895#2" fromTaz="fh_living" toTaz="munich" departLane="free" departSpeed="max"/>
    <trip id="4087" depart="210.18" from="-E51" to="289441726" fromTaz="fh_living" toTaz="mw_a96_out_out" departLane="free" departSpeed="max"/>
    <trip id="2637" depart="211.12" from="-E74" to="1061284895#2" fromTaz="fh_living" toTaz="munich" departLane="free" departSpeed="max"/>
    <trip id="4218" depart="211.72" from="-E72" to="289441726" fromTaz="fh_living" toTaz="mw_a96_out_out" departLane="free" departSpeed="max"/>
    <trip id="197" depart="215.86" from="E49" to="-772719711#0" fromTaz="fh_living" toTaz="fh_education" departLane="free" departSpeed="max"/>
    <trip id="1907" depart="228.86" from="-E46" to="479885266" fromTaz="fh_living" toTaz="munich" departLane="free" departSpeed="max"/>
    <trip id="2143" depart="231.34" from="-E49" to="479885266" fromTaz="fh_living" toTaz="munich" departLane="free" departSpeed="max"/>
    <trip id="6703" depart="235.93" from="2597456" to="E74" fromTaz="mw_a96_in_out" toTaz="fh_living" departLane="free" departSpeed="max"/>
    <trip id="4288" depart="256.49" from="-E71" to="541602725" fromTaz="fh_living" toTaz="mw_a99_out" departLane="free" departSpeed="max"/>
    <trip id="5059" depart="264.99" from="E45" to="541602725" fromTaz="fh_living" toTaz="mw_a99_out" departLane="free" departSpeed="max"/>
    <trip id="2040" depart="271.60" from="-E44" to="134693374#0" fromTaz="fh_living" toTaz="munich" departLane="free" departSpeed="max"/>
    <trip id="5805" depart="280.13" from="-30240188" to="-E74" fromTaz="germering" toTaz="fh_living" departLane="free" departSpeed="max"/>
    <trip id="3578" depart="280.40" from="-E74" to="289444419" fromTaz="fh_living" toTaz="mw_a96_in_in" departLane="free" departSpeed="max"/>
    <trip id="4994" depart="282.46" from="-E70" to="541602725" fromTaz="fh_living" toTaz="mw_a99_out" departLane="free" departSpeed="max"/>
    <trip id="3104" depart="285.43" from="-E70" to="289444419" fromTaz="fh_living" toTaz="mw_a96_in_in" departLane="free" departSpeed="max"/>
    <trip id="2540" depart="292.52" from="E46" to="479885266" fromTaz="fh_living" toTaz="munich" departLane="free" departSpeed="max"/>
    <trip id="2146" depart="306.26" from="-E72" to="-38076570#1" fromTaz="fh_living" toTaz="munich" departLane="free" departSpeed="max"/>
    <trip id="136" depart="321.07" from="E73" to="-772719711#0" fromTaz="fh_living" toTaz="fh_education" departLane="free" departSpeed="max"/>
    <trip id="2145" depart="331.00" from="E44" to="134693374#0" fromTaz="fh_living" toTaz="munich" departLane="free" departSpeed="max"/>
    <trip id="3553" depart="336.02" from="-504569022" to="289444419" fromTaz="fh_living" toTaz="mw_a96_in_in" departLane="free" departSpeed="max"/>
    <trip id="854" depart="338.45" from="E49" to="-30240188" fromTaz="fh_living" toTaz="germering" departLane="free" departSpeed="max"/>
    <trip id="535" depart="340.80" from="E48" to="504569020#1" fromTaz="fh_living" toTaz="fh_education" departLane="free" departSpeed="max"/>
    <trip id="444" depart="355.36" from="-E47" to="-772719711#0" fromTaz="fh_living" toTaz="fh_education" departLane="free" departSpeed="max"/>
    <trip id="7608" depart="361.24" from="317240329" to="-E70" fromTaz="p_trainstation" toTaz="fh_living" departLane="free" departSpeed="max"/>
    <trip id="7420" depart="364.79" from="317240329" to="-E65" fromTaz="p_trainstation" toTaz="fh_living" departLane="free" departSpeed="max"/>
    <trip id="4317" depart="370.60" from="E49" to="541602725" fromTaz="fh_living" toTaz="mw_a99_out" departLane="free" departSpeed="max"/>
    <trip id="7672" depart="373.13" from="317240329" to="E52" fromTaz="p_trainstation" toTaz="fh_living" departLane="free" departSpeed="max"/>
    <trip id="7546" depart="377.99" from="317240329" to="E70" fromTaz="p_trainstation" toTaz="fh_living" departLane="free" departSpeed="max"/>
    <trip id="1626" depart="382.03" from="-E52" to="479885266" fromTaz="fh_living" toTaz="munich" departLane="free" departSpeed="max"/>
    <trip id="2972" depart="386.87" from="E48" to="289444419" fromTaz="fh_living" toTaz="mw_a96_in_in" departLane="free" departSpeed="max"/>
    <trip id="1704" depart="401.34" from="-E49" to="1061284895#2" fromTaz="fh_living" toTaz="munich" departLane="free" departSpeed="max"/>
    <trip id="3854" depart="419.66" from="E69" to="289444419" fromTaz="fh_living" toTaz="mw_a96_in_in" departLane="free" departSpeed="max"/>
    <trip id="4464" depart="421.94" from="-E69" to="541602725" fromTaz="fh_living" toTaz="mw_a99_out" departLane="free" departSpeed="max"/>
    <trip id="911" depart="428.84" from="-504569022" to="-30240188" fromTaz="fh_living" toTaz="germering" departLane="free" departSpeed="max"/>
    <trip id="190" depart="429.67" from="E48" to="-772719711#0" fromTaz="fh_living" toTaz="fh_education" departLane="free" departSpeed="max"/>
    <trip id="4169" depart="435.46" from="E69" to="289441726" fromTaz="fh_living" toTaz="mw_a96_out_out" departLane="free" departSpeed="max"/>
    <trip id="7079" depart="443.89" from="55717665" to="-E69" fromTaz="mw_a99_in" toTaz="fh_living" departLane="free" departSpeed="max"/>
    <trip id="4358" depart="445.29" from="-E46" to="541602725" fromTaz="fh_living" toTaz="mw_a99_out" departLane="free" departSpeed="max"/>
    <trip id="2001" depart="448.80" from="-E43" to="-38076570#1" fromTaz="fh_living" toTaz="munich" departLane="free" departSpeed="max"/>
    <trip id="5560" depart="449.48" from="E74" to="317240329" fromTaz="fh_living" toTaz="p_trainstation" departLane="free" departSpeed="max"/>
    <trip id="4820" depart="450.39" from="-E44" to="541602725" fromTaz="fh_living" toTaz="mw_a99_out" departLane="free" departSpeed="max"/>
    <trip id="7193" depart="450.41" from="55717665" to="E52" fromTaz="mw_a99_in" toTaz="fh_living" departLane="free" departSpeed="max"/>
    <trip id="4304" depart="451.02" from="E71" to="541602725" fromTaz="fh_living" toTaz="mw_a99_out" departLane="free" departSpeed="max"/>
    <trip id="4517" depart="457.67" from="-504569022" to="541602725" fromTaz="fh_living" toTaz="mw_a99_out" departLane="free" departSpeed="max"/>
    <trip id="187" depart="464.16" from="E43" to="504569020#1" fromTaz="fh_living" toTaz="fh_education" departLane="free" departSpeed="max"/>
    <trip id="4609" depart="474.11" from="E43" to="541602725" fromTaz="fh_living" toTaz="mw_a99_out" departLane="free" departSpeed="max"/>
    <trip id="6768" depart="484.09" from="327070358" to="-E43" fromTaz="mw_a96_out_in" toTaz="fh_living" departLane="free" departSpeed="max"/>
    <trip id="249" depart="490.44" from="E44" to="-772719711#0" fromTaz="fh_living" toTaz="fh_education" departLane="free" departSpeed="max"/>
    <trip id="7630" depart="491.08" from="317240329" to="E72" fromTaz="p_trainstation" toTaz="fh_living" departLane="free" departSpeed="max"/>
    <trip id="1685" depart="491.24" from="-E69" to="479885266" fromTaz="fh_living" toTaz="munich" departLane="free" departSpeed="max"/>
    <trip id="3992" depart="500.17" from="-E51" to="289441726" fromTaz="fh_living" toTaz="mw_a96_out_out" departLane="free" departSpeed="max"/>
    <trip id="5444" depart="500.36" from="-E44" to="317240329" fromTaz="fh_living" toTaz="p_trainstation" departLane="free" departSpeed="max"/>
    <trip id="4110" depart="509.54" from="E49" to="289441726" fromTaz="fh_living" toTaz="mw_a96_out_out" departLane="free" departSpeed="max"/>
    <trip id="4392" depart="512.21" from="E74" to="541602725" fromTaz="fh_living" toTaz="mw_a99_out" departLane="free" departSpeed="max"/>
    <trip id="1085" depart="518.02" from="-E46" to="-384524948#0" fromTaz="fh_living" toTaz="martinsried" departLane="free" departSpeed="max"/>
    <trip id="322" depart="521.70" from="E44" to="504569020#1" fromTaz="fh_living" toTaz="fh_education" departLane="free" departSpeed="max"/>
    <trip id="5161" depart="526.09" from="E74" to="541602725" fromTaz="fh_living" toTaz="mw_a99_out" departLane="free" departSpeed="max"/>
    <trip id="4441" depart="536.20" from="-E65" to="541602725" fromTaz="fh_living" toTaz="mw_a99_out" departLane="free" departSpeed="max"/>
    <trip id="537" depart="541.66" from="E51" to="-721302669#2" fromTaz="fh_living" toTaz="fh_education" departLane="free" departSpeed="max"/>
    <trip id="5477" depart="544.93" from="E74" to="317240329" fromTaz="fh_living" toTaz="p_trainstation" departLane="free" departSpeed="max"/>
    <trip id="3513" depart="549.31" from="-E49" to="289444419" fromTaz="fh_living" toTaz="mw_a96_in_in" departLane="free" departSpeed="max"/>
    <trip id="7398" depart="554.60" from="317240329" to="-E44" fromTaz="p_trainstation" toTaz="fh_living" departLane="free" departSpeed="max"/>
    <trip id="6527" depart="557.69" from="2597456" to="E46" fromTaz="mw_a96_in_out" toTaz="fh_living" departLane="free" departSpeed="max"/>
    <trip id="1129" depart="561.78" from="E47" to="-384524948#0" fromTaz="fh_living" toTaz="martinsried" departLane="free" departSpeed="max"/>
    <trip id="2758" depart="566.59" from="-E65" to="289444419" fromTaz="fh_living" toTaz="mw_a96_in_in" departLane="free" departSpeed="max"/>
    <trip id="7688" depart="567.40" from="317240329" to="-E73" fromTaz="p_trainstation" toTaz="fh_living" departLane="free" departSpeed="max"/>
    <trip id="1878" depart="573.61" from="E45" to="479885266" fromTaz="fh_living" toTaz="munich" departLane="free" departSpeed="max"/>
    <trip id="711" depart="573.95" from="E48" to="-30240188" fromTaz="fh_living" toTaz="germering" departLane="free" departSpeed="max"/>
    <trip id="5706" depart="580.08" from="-E69" to="317240329" fromTaz="fh_living" toTaz="p_trainstation" departLane="free" departSpeed="max"/>
    <trip id="1561" depart="580.75" from="E72" to="479885266" fromTaz="fh_living" toTaz="munich" departLane="free" departSpeed="max"/>
    <trip id="7395" depart="583.47" from="317240329" to="-E74" fromTaz="p_trainstation" toTaz="fh_living" departLane="free" departSpeed="max"/>
    <trip id="6199" depart="587.04" from="134693374#0" to="E46" fromTaz="munich" toTaz="fh_living" departLane="free" departSpeed="max"/>
    <trip id="1411" depart="588.98" from="-E47" to="-38076570#1" fromTaz="fh_living" toTaz="munich" departLane="free" departSpeed="max"/>
    <trip id="998" depart="589.95" from="E65" to="-30240188" fromTaz="fh_living" toTaz="germering" departLane="free" departSpeed="max"/>
    <trip id="3353" depart="591.09" from="-E72" to="289444419" fromTaz="fh_living" toTaz="mw_a96_in_in" departLane="free" departSpeed="max"/>
    <trip id="7189" depart="597.09" from="55717665" to="-E49" fromTaz="mw_a99_in" toTaz="fh_living" departLane="free" departSpeed="max"/>
    <trip id="7462" depart="608.56" from="317240329" to="E44" fromTaz="p_trainstation" toTaz="fh_living" departLane="free" departSpeed="max"/>
    <trip id="7575" depart="609.73" from="317240329" to="E72" fromTaz="p_trainstation" toTaz="fh_living" departLane="free" departSpeed="max"/>
    <trip id="5739" depart="613.73" from="-30240188" to="E70" fromTaz="germering" toTaz="fh_living" departLane="free" departSpeed="max"/>
    <trip id="7388" depart="627.58" from="317240329" to="E72" fromTaz="p_trainstation" toTaz="fh_living" departLane="free" departSpeed="max"/>
    <trip id="3879" depart="630.92" from="E47" to="289444419" fromTaz="fh_living" toTaz="mw_a96_in_in" departLane="free" departSpeed="max"/>
    <trip id="5296" depart="634.33" from="E65" to="317240329" fromTaz="fh_living" toTaz="p_trainstation" departLane="free" departSpeed="max"/>
    <trip id="3267" depart="637.29" from="-E70" to="289444419" fromTaz="fh_living" toTaz="mw_a96_in_in" departLane="free" departSpeed="max"/>
    <trip id="2289" depart="641.40" from="-E45" to="1061284895#2" fromTaz="fh_living" toTaz="munich" departLane="free" departSpeed="max"/>
    <trip id="5746" depart="645.47" from="-30240188" to="E44" fromTaz="germering" toTaz="fh_living" departLane="free" departSpeed="max"/>
    <trip id="6729" depart="650.18" from="2597456" to="-E48" fromTaz="mw_a96_in_out" toTaz="fh_living" departLane="free" departSpeed="max"/>
    <trip id="3060" depart="652.02" from="E73" to="289444419" fromTaz="fh_living" toTaz="mw_a96_in_in" departLane="free" departSpeed="max"/>
    <trip id="7293" depart="652.13" from="55717665" to="E44" fromTaz="mw_a99_in" toTaz="fh_living" departLane="free" departSpeed="max"/>
    <trip id="3232" depart="654.05" from="E70" to="289444419" fromTaz="fh_living" toTaz="mw_a96_in_in" departLane="free" departSpeed="max"/>
    <trip id="4877" depart="659.08" from="-E47" to="541602725" fromTaz="fh_living" toTaz="mw_a99_out" departLane="free" departSpeed="max"/>
    <trip id="989" depart="673.69" from="-E71" to="-30240188" fromTaz="fh_living" toTaz="germering" departLane="free" departSpeed="max"/>
    <trip id="605" depart="674.64" from="E51" to="-721302669#2" fromTaz="fh_living" toTaz="fh_education" departLane="free" departSpeed="max"/>
    <trip id="794" depart="684.37" from="E74" to="-30240188" fromTaz="fh_living" toTaz="germering" departLane="free" departSpeed="max"/>
    <trip id="6202" depart="684.55" from="-38076570#1" to="E44" fromTaz="munich" toTaz="fh_living" departLane="free" departSpeed="max"/>
    <trip id="211" depart="693.28" from="-E72" to="504569020#1" fromTaz="fh_living" toTaz="fh_education" departLane="free" departSpeed="max"/>
    <trip id="925" depart="705.33" from="E45" to="-30240188" fromTaz="fh_living" toTaz="germering" departLane="free" departSpeed="max"/>
    <trip id="4413" depart="718.42" from="E73" to="541602725" fromTaz="fh_living" toTaz="mw_a99_out" departLane="free" departSpeed="max"/>
    <trip id="4630" depart="718.91" from="-E69" to="541602725" fromTaz="fh_living" toTaz="mw_a99_out" departLane="free" departSpeed="max"/>
    <trip id="7032" depart="721.31" from="55717665" to="-E49" fromTaz="mw_a99_in" toTaz="fh_living" departLane="free" departSpeed="max"/>
    <trip id="7351" depart="729.87" from="317240329" to="E47" fromTaz="p_trainstation" toTaz="fh_living" departLane="free" departSpeed="max"/>
    <trip id="5993" depart="732.75" from="-38076570#1" to="-E69" fromTaz="munich" toTaz="fh_living" departLane="free" departSpeed="max"/>
    <trip id="4747" depart="739.61" from="-E44" to="541602725" fromTaz="fh_living" toTaz="mw_a99_out" departLane="free" departSpeed="max"/>
    <trip id="1994" depart="749.49" from="E52" to="134693374#0" fromTaz="fh_living" toTaz="munich" departLane="free" departSpeed="max"/>
    <trip id="1180" depart="749.68" from="E71" to="-384524948#0" fromTaz="fh_living" toTaz="martinsried" departLane="free" departSpeed="max"/>
    <trip id="2857" depart="757.14" from="E49" to="289444419" fromTaz="fh_living" toTaz="mw_a96_in_in" departLane="free" departSpeed="max"/>
    <trip id="3600" depart="759.98" from="-E51" to="289444419" fromTaz="fh_living" toTaz="mw_a96_in_in" departLane="free" departSpeed="max"/>
    <trip id="2270" depart="768.38" from="E51" to="-38076570#1" fromTaz="fh_living" toTaz="munich" departLane="free" departSpeed="max"/>
    <trip id="4320" depart="777.22" from="E46" to="541602725" fromTaz="fh_living" toTaz="mw_a99_out" departLane="free" departSpeed="max"/>
    <trip id="7559" depart="782.24" from="317240329" to="E43" fromTaz="p_trainstation" toTaz="fh_living" departLane="free" departSpeed="max"/>
    <trip id="2460" depart="785.36" from="E69" to="134693374#0" fromTaz="fh_living" toTaz="munich" departLane="free" departSpeed="max"/>
    <trip id="1352" depart="785.92" from="E43" to="134693374#0" fromTaz="fh_living" toTaz="munich" departLane="free" departSpeed="max"/>
    <trip id="1845" depart="794.20" from="504569022" to="134693374#0" fromTaz="fh_living" toTaz="munich" departLane="free" departSpeed="max"/>
    <trip id="5057" depart="794.64" from="E65" to="541602725" fromTaz="fh_living" toTaz="mw_a99_out" departLane="free" departSpeed="max"/>
    <trip id="2231" depart="801.39" from="-E49" to="1061284895#2" fromTaz="fh_living" toTaz="munich" departLane="free" departSpeed="max"/>
    <trip id="3062" depart="804.38" from="E46" to="289444419" fromTaz="fh_living" toTaz="mw_a96_in_in" departLane="free" departSpeed="max"/>
    <trip id="5988" depart="811.96" from="134693374#0" to="-E70" fromTaz="munich" toTaz="fh_living" departLane="free" departSpeed="max"/>
    <trip id="7577" depart="816.79" from="317240329" to="-E71" fromTaz="p_trainstation" toTaz="fh_living" departLane="free" departSpeed="max"/>
    <trip id="6120" depart="819.82" from="1061284895#2" to="E69" fromTaz="munich" toTaz="fh_living" departLane="free" departSpeed="max"/>
    <trip id="5164" depart="827.37" from="E71" to="541602725" fromTaz="fh_living" toTaz="mw_a99_out" departLane="free" departSpeed="max"/>
    <trip id="4850" depart="829.62" from="-E48" to="541602725" fromTaz="fh_living" toTaz="mw_a99_out" departLane="free" departSpeed="max"/>
    <trip id="2394" depart="843.70" from="-E52" to="479885266" fromTaz="fh_living" toTaz="munich" departLane="free" departSpeed="max"/>
    <trip id="5329" depart="848.24" from="E45" to="317240329" fromTaz="fh_living" toTaz="p_trainstation" departLane="free" departSpeed="max"/>
    <trip id="6216" depart="870.13" from="1061284895#2" to="-E44" fromTaz="munich" toTaz="fh_living" departLane="free" departSpeed="max"/>
    <trip id="233" depart="870.35" from="-E65" to="-772719711#0" fromTaz="fh_living" toTaz="fh_education" departLane="free" departSpeed="max"/>
    <trip id="632" depart="882.65" from="-E51" to="504569020#1" fromTaz="fh_living" toTaz="fh_education" departLane="free" departSpeed="max"/>
    <trip id="5885" depart="888.04" from="-384524948#0" to="E44" fromTaz="martinsried" toTaz="fh_living" departLane="free" departSpeed="max"/>
    <trip id="5646" depart="888.63" from="-504569022" to="317240329" fromTaz="fh_living" toTaz="p_trainstation" departLane="free" departSpeed="max"/>
    <trip id="4542" depart="890.13" from="-E73" to="541602725" fromTaz="fh_living" toTaz="mw_a99_out" departLane="free" departSpeed="max"/>
    <trip id="3026" depart="894.36" from="E45" to="289444419" fromTaz="fh_living" toTaz="mw_a96_in_in" departLane="free" departSpeed="max"/>
    <trip id="909" depart="897.44" from="E69" to="-30240188" fromTaz="fh_living" toTaz="germering" departLane="free" departSpeed="max"/>
    <trip id="6458" depart="904.83" from="479885266" to="-E52" fromTaz="munich" toTaz="fh_living" departLane="free" departSpeed="max"/>
    <trip id="7664" depart="906.54" from="317240329" to="E65" fromTaz="p_trainstation" toTaz="fh_living" departLane="free" departSpeed="max"/>
    <trip id="1419" depart="939.32" from="E72" to="479885266" fromTaz="fh_living" toTaz="munich" departLane="free" departSpeed="max"/>
    <trip id="3636" depart="953.51" from="-E70" to="289444419" fromTaz="fh_living" toTaz="mw_a96_in_in" departLane="free" departSpeed="max"/>
    <trip id="5880" depart="965.58" from="-384524948#0" to="-E73" fromTaz="martinsried" toTaz="fh_living" departLane="free" departSpeed="max"/>
    <trip id="2968" depart="971.42" from="E51" to="289444419" fromTaz="fh_living" toTaz="mw_a96_in_in" departLane="free" departSpeed="max"/>
    <trip id="714" depart="971.72" from="-E44" to="-30240188" fromTaz="fh_living" toTaz="germering" departLane="free" departSpeed="max"/>
    <trip id="1486" depart="992.58" from="E45" to="-38076570#1" fromTaz="fh_living" toTaz="munich" departLane="free" departSpeed="max"/>
    <trip id="1955" depart="992.72" from="-E69" to="-38076570#1" fromTaz="fh_living" toTaz="munich" departLane="free" departSpeed="max"/>
    <trip id="4298" depart="993.01" from="E44" to="541602725" fromTaz="fh_living" toTaz="mw_a99_out" departLane="free" departSpeed="max"/>
    <trip id="3507" depart="996.38" from="E47" to="289444419" fromTaz="fh_living" toTaz="mw_a96_in_in" departLane="free" departSpeed="max"/>
    <trip id="6175" depart="997.38" from="479885266" to="-E43" fromTaz="munich" toTaz="fh_living" departLane="free" departSpeed="max"/>
    <trip id="5267" depart="999.23" from="E45" to="541602725" fromTaz="fh_living" toTaz="mw_a99_out" departLane="free" departSpeed="max"/>
    <trip id="1348" depart="1004.91" from="E48" to="134693374#0" fromTaz="fh_living" toTaz="munich" departLane="free" departSpeed="max"/>
    <trip id="5513" depart="1020.07" from="-E70" to="317240329" fromTaz="fh_living" toTaz="p_trainstation" departLane="free" departSpeed="max"/>
    <trip id="121" depart="1025.76" from="E51" to="-772719711#0" fromTaz="fh_living" toTaz="fh_education" departLane="free" departSpeed="max"/>
    <trip id="977" depart="1027.29" from="-E52" to="-30240188" fromTaz="fh_living" toTaz="germering" departLane="free" departSpeed="max"/>
    <trip id="469" depart="1038.14" from="-E49" to="504569020#1" fromTaz="fh_living" toTaz="fh_education" departLane="free" departSpeed="max"/>
    <trip id="6823" depart="1046.94" from="327070358" to="E43" fromTaz="mw_a96_out_in" toTaz="fh_living" departLane="free" departSpeed="max"/>
    <trip id="891" depart="1052.45" from="-E49" to="-30240188" fromTaz="fh_living" toTaz="germering" departLane="free" departSpeed="max"/>
    <trip id="5533" depart="1064.50" from="-E72" to="317240329" fromTaz="fh_living" toTaz="p_trainstation" departLane="free" departSpeed="max"/>
    <trip id="2500" depart="1064.57" from="E73" to="134693374#0" fromTaz="fh_living" toTaz="munich" departLane="free" departSpeed="max"/>
    <trip id="637" depart="1081.82" from="-E73" to="504569020#1" fromTaz="fh_living" toTaz="fh_education" departLane="free" departSpeed="max"/>
    <trip id="6879" depart="1084.96" from="327070358" to="E46" fromTaz="mw_a96_out_in" toTaz="fh_living" departLane="free" departSpeed="max"/>
    <trip id="5183" depart="1085.93" from="E74" to="541602725" fromTaz="fh_living" toTaz="mw_a99_out" departLane="free" departSpeed="max"/>
    <trip id="4714" depart="1089.24" from="-E43" to="541602725" fromTaz="fh_living" toTaz="mw_a99_out" departLane="free" departSpeed="max"/>
    <trip id="126" depart="1103.27" from="E52" to="-772719711#0" fromTaz="fh_living" toTaz="fh_education" departLane="free" departSpeed="max"/>
    <trip id="6839" depart="1116.85" from="327070358" to="-E51" fromTaz="mw_a96_out_in" toTaz="fh_living" departLane="free" departSpeed="max"/>
    <trip id="6150" depart="1122.10" from="1061284895#2" to="E71" fromTaz="munich" toTaz="fh_living" departLane="free" departSpeed="max"/>
    <trip id="3176" depart="1124.25" from="E51" to="289444419" fromTaz="fh_living" toTaz="mw_a96_in_in" departLane="free" departSpeed="max"/>
    <trip id="5129" depart="1125.03" from="-E51" to="541602725" fromTaz="fh_living" toTaz="mw_a99_out" departLane="free" departSpeed="max"/>
    <trip id="867" depart="1135.55" from="E45" to="-30240188" fromTaz="fh_living" toTaz="germering" departLane="free" departSpeed="max"/>
    <trip id="781" depart="1141.28" from="-504569022" to="-30240188" fromTaz="fh_living" toTaz="germering" departLane="free" departSpeed="max"/>
    <trip id="3136" depart="1150.69" from="E46" to="289444419" fromTaz="fh_living" toTaz="mw_a96_in_in" departLane="free" departSpeed="max"/>
    <trip id="1420" depart="1151.04" from="E46" to="479885266" fromTaz="fh_living" toTaz="munich" departLane="free" departSpeed="max"/>
    <trip id="7021" depart="1160.59" from="55717665" to="-E49" fromTaz="mw_a99_in" toTaz="fh_living" departLane="free" departSpeed="max"/>
    <trip id="1483" depart="1166.75" from="-E65" to="134693374#0" fromTaz="fh_living" toTaz="munich" departLane="free" departSpeed="max"/>
    <trip id="5982" depart="1168.83" from="1061284895#2" to="-E71" fromTaz="munich" toTaz="fh_living" departLane="free" departSpeed="max"/>
    <trip id="7636" depart="1175.39" from="317240329" to="-504569022" fromTaz="p_trainstation" toTaz="fh_living" departLane="free" departSpeed="max"/>
    <trip id="7248" depart="1176.74" from="55717665" to="E44" fromTaz="mw_a99_in" toTaz="fh_living" departLane="free" departSpeed="max"/>
    <trip id="305" depart="1179.20" from="E69" to="504569020#1" fromTaz="fh_living" toTaz="fh_education" departLane="free" departSpeed="max"/>
    <trip id="7668" depart="1194.00" from="317240329" to="E73" fromTaz="p_trainstation" toTaz="fh_living" departLane="free" departSpeed="max"/>
    <trip id="465" depart="1195.75" from="E43" to="-721302669#2" fromTaz="fh_living" toTaz="fh_education" departLane="free" departSpeed="max"/>
    <trip id="2306" depart="1212.01" from="504569022" to="1061284895#2" fromTaz="fh_living" toTaz="munich" departLane="free" departSpeed="max"/>
    <trip id="7445" depart="1219.60" from="317240329" to="E69" fromTaz="p_trainstation" toTaz="fh_living" departLane="free" departSpeed="max"/>
    <trip id="84" depart="1223.00" from="504569020#1" to="E43" fromTaz="fh_education" toTaz="fh_living" departLane="free" departSpeed="max"/>
    <trip id="5151" depart="1230.87" from="504569022" to="541602725" fromTaz="fh_living" toTaz="mw_a99_out" departLane="free" departSpeed="max"/>