<?xml version="1.0" encoding="UTF-8"?>

<!-- generated on 2022-07-29 14:06:27 by Eclipse SUMO duarouter Version 1.14.1
<configuration xmlns:xsi="http://www.w3.org/2001/XMLSchema-instance" xsi:noNamespaceSchemaLocation="http://sumo.dlr.de/xsd/duarouterConfiguration.xsd">

    <input>
        <net-file value="osm-test.net.xml"/>
        <route-files value="routes_file.xsd"/>
    </input>

    <output>
        <output-file value="test.rou.xml"/>
    </output>

    <report>
        <ignore-errors value="true"/>
    </report>

</configuration>
-->

<routes xmlns:xsi="http://www.w3.org/2001/XMLSchema-instance" xsi:noNamespaceSchemaLocation="http://sumo.dlr.de/xsd/routes_file.xsd">
    <vType id="type1" length="5.00" maxSpeed="70.00" accel="0.8" decel="4.5" sigma="0.5"/>
    <vehicle id="car1" type="type1" depart="0.00">
        <route edges="-1024679358"/>
    </vehicle>
    <vType id="taxi" vClass="taxi" personCapacity="4">
        <param key="device.taxi.dropOffDuration" value="20"/>
        <param key="device.taxi.parking" value="false"/>
        <param key="device.taxi.pickUpDuration" value="10"/>
        <param key="has.taxi.device" value="true"/>
    </vType>
    <vehicle id="taxi1" type="taxi" depart="0.00" color="blue">
        <route edges="-1024679358"/>
    </vehicle>
    <vehicle id="taxi2" type="taxi" depart="0.00" color="blue">
        <route edges="-1024679358"/>
    </vehicle>
    <vehicle id="taxi3" type="taxi" depart="0.00" color="blue">
        <route edges="-1024679358"/>
    </vehicle>
    <vehicle id="taxi4" type="taxi" depart="0.00" color="blue">
        <route edges="-1024679358"/>
    </vehicle>
    <vehicle id="taxi5" type="taxi" depart="0.00" color="blue">
        <route edges="-1024679358"/>
    </vehicle>
    <vehicle id="taxi6" type="taxi" depart="0.00" color="blue">
        <route edges="-1024679358"/>
    </vehicle>
    <person id="foo.0" depart="0.00">
        <walk edges="772719704#4 772719713#2 -721302669#2"/>
        <ride from="-721302669#2" to="E50" lines="taxi" group="g0"/>
    </person>
    <person id="random.0" depart="0.00">
        <ride from="504566810#1" to="-119158885" lines="taxi"/>
    </person>
    <vehicle id="trip3.0" type="type1" depart="0.00">
        <route edges="-E63 E52 E53 E54 E55 -E41 -E40 E66 E67 E74 -464738721 407578432#1 -341648794#0 -2385472#1 -326348924#1 -341900052 -162967452 141620517#0 141620517#1-AddedOnRampEdge 141620517#1 100871360 100871358 198358388 280269658 541602725"/>
    </vehicle>
    <vehicle id="trip5.0" type="type1" depart="0.00">
        <route edges="-E61 E54 E55 -E41 -E40 E390 3636462 280263701 100871362 12811203 100871370#1 100871363 100871352 100871343 100871371 146070306 32456942#0 32456942#1 32456942#2 29264205 327070360 289441726"/>
    </vehicle>
    <vehicle id="trip2.0" type="type1" depart="1.00">
        <route edges="E65 -E44 -E43 -E42 -E41 -E40 E66 E67 E74 -464738721 407578432#1 -341648794#0 -2385472#1 -326348924#1 -341900052 -162967452 141620517#0 141620517#1-AddedOnRampEdge 141620517#1 100871360 100871358 198358388 280269658 541602725"/>
    </vehicle>
    <vehicle id="trip3.1" type="type1" depart="1.00">
        <route edges="-E63 E52 E53 E54 E55 -E41 -E40 E66 E67 E74 -464738721 407578432#1 -341648794#0 -2385472#1 -326348924#1 -341900052 -162967452 141620517#0 141620517#1-AddedOnRampEdge 141620517#1 100871360 100871358 198358388 280269658 541602725"/>
    </vehicle>
    <vehicle id="trip4.0" type="type1" depart="1.00">
        <route edges="-E69 -E66 E390 3636462 280263701 100871362 12811203 100871370#1 100871363 100871352 100871343 100871371 146070306 32456942#0 32456942#1 32456942#2 29264205 327070360 289441726"/>
    </vehicle>
    <vehicle id="trip5.1" type="type1" depart="1.00">
        <route edges="-E61 E54 E55 -E41 -E40 E390 3636462 280263701 100871362 12811203 100871370#1 100871363 100871352 100871343 100871371 146070306 32456942#0 32456942#1 32456942#2 29264205 327070360 289441726"/>
    </vehicle>
    <vehicle id="trip6.0" type="type1" depart="1.00">
        <route edges="-E64 E50 -E44 -E43 -E42 -E41 -E40 E390 3636462 280263701 100871362 12811203 100871370#1 100871363 100871352 100871343 100871371 146070306 32456942#0 32456942#1 32456942#2 29264205 327070360 289441726"/>
    </vehicle>
    <vehicle id="trip1.0" type="type1" depart="2.00">
        <route edges="E46 E47 -E42 -E41 -E40 E66 E67 E74 -464738721 407578432#1 -341648794#0 -2385472#1 -326348924#1 -341900052 -162967452 141620517#0 141620517#1-AddedOnRampEdge 141620517#1 100871360 100871358 198358388 280269658 541602725"/>
    </vehicle>
    <vehicle id="trip5.2" type="type1" depart="2.00">
        <route edges="-E61 E54 E55 -E41 -E40 E390 3636462 280263701 100871362 12811203 100871370#1 100871363 100871352 100871343 100871371 146070306 32456942#0 32456942#1 32456942#2 29264205 327070360 289441726"/>
    </vehicle>
    <vehicle id="trip6.1" type="type1" depart="2.00">
        <route edges="-E64 E50 -E44 -E43 -E42 -E41 -E40 E390 3636462 280263701 100871362 12811203 100871370#1 100871363 100871352 100871343 100871371 146070306 32456942#0 32456942#1 32456942#2 29264205 327070360 289441726"/>
    </vehicle>
    <vehicle id="trip1.1" type="type1" depart="3.00">
        <route edges="E46 E47 -E42 -E41 -E40 E66 E67 E74 -464738721 407578432#1 -341648794#0 -2385472#1 -326348924#1 -341900052 -162967452 141620517#0 141620517#1-AddedOnRampEdge 141620517#1 100871360 100871358 198358388 280269658 541602725"/>
    </vehicle>
    <vehicle id="trip2.1" type="type1" depart="3.00">
        <route edges="E65 -E44 -E43 -E42 -E41 -E40 E66 E67 E74 -464738721 407578432#1 -341648794#0 -2385472#1 -326348924#1 -341900052 -162967452 141620517#0 141620517#1-AddedOnRampEdge 141620517#1 100871360 100871358 198358388 280269658 541602725"/>
    </vehicle>
    <vehicle id="trip3.2" type="type1" depart="3.00">
        <route edges="-E63 E52 E53 E54 E55 -E41 -E40 E66 E67 E74 -464738721 407578432#1 -341648794#0 -2385472#1 -326348924#1 -341900052 -162967452 141620517#0 141620517#1-AddedOnRampEdge 141620517#1 100871360 100871358 198358388 280269658 541602725"/>
    </vehicle>
    <vehicle id="trip4.1" type="type1" depart="3.00">
        <route edges="-E69 -E66 E390 3636462 280263701 100871362 12811203 100871370#1 100871363 100871352 100871343 100871371 146070306 32456942#0 32456942#1 32456942#2 29264205 327070360 289441726"/>
    </vehicle>
    <vehicle id="trip6.2" type="type1" depart="3.00">
        <route edges="-E64 E50 -E44 -E43 -E42 -E41 -E40 E390 3636462 280263701 100871362 12811203 100871370#1 100871363 100871352 100871343 100871371 146070306 32456942#0 32456942#1 32456942#2 29264205 327070360 289441726"/>
    </vehicle>
    <vehicle id="trip3.3" type="type1" depart="4.00">
        <route edges="-E63 E52 E53 E54 E55 -E41 -E40 E66 E67 E74 -464738721 407578432#1 -341648794#0 -2385472#1 -326348924#1 -341900052 -162967452 141620517#0 141620517#1-AddedOnRampEdge 141620517#1 100871360 100871358 198358388 280269658 541602725"/>
    </vehicle>
    <vehicle id="trip4.2" type="type1" depart="4.00">
        <route edges="-E69 -E66 E390 3636462 280263701 100871362 12811203 100871370#1 100871363 100871352 100871343 100871371 146070306 32456942#0 32456942#1 32456942#2 29264205 327070360 289441726"/>
    </vehicle>
    <vehicle id="trip5.3" type="type1" depart="4.00">
        <route edges="-E61 E54 E55 -E41 -E40 E390 3636462 280263701 100871362 12811203 100871370#1 100871363 100871352 100871343 100871371 146070306 32456942#0 32456942#1 32456942#2 29264205 327070360 289441726"/>
    </vehicle>
    <vehicle id="trip1.2" type="type1" depart="5.00">
        <route edges="E46 E47 -E42 -E41 -E40 E66 E67 E74 -464738721 407578432#1 -341648794#0 -2385472#1 -326348924#1 -341900052 -162967452 141620517#0 141620517#1-AddedOnRampEdge 141620517#1 100871360 100871358 198358388 280269658 541602725"/>
    </vehicle>
    <vehicle id="trip3.4" type="type1" depart="5.00">
        <route edges="-E63 E52 E53 E54 E55 -E41 -E40 E66 E67 E74 -464738721 407578432#1 -341648794#0 -2385472#1 -326348924#1 -341900052 -162967452 141620517#0 141620517#1-AddedOnRampEdge 141620517#1 100871360 100871358 198358388 280269658 541602725"/>
    </vehicle>
    <vehicle id="trip4.3" type="type1" depart="5.00">
        <route edges="-E69 -E66 E390 3636462 280263701 100871362 12811203 100871370#1 100871363 100871352 100871343 100871371 146070306 32456942#0 32456942#1 32456942#2 29264205 327070360 289441726"/>
    </vehicle>
    <vehicle id="trip5.4" type="type1" depart="5.00">
        <route edges="-E61 E54 E55 -E41 -E40 E390 3636462 280263701 100871362 12811203 100871370#1 100871363 100871352 100871343 100871371 146070306 32456942#0 32456942#1 32456942#2 29264205 327070360 289441726"/>
    </vehicle>
    <vehicle id="trip5.5" type="type1" depart="6.00">
        <route edges="-E61 E54 E55 -E41 -E40 E390 3636462 280263701 100871362 12811203 100871370#1 100871363 100871352 100871343 100871371 146070306 32456942#0 32456942#1 32456942#2 29264205 327070360 289441726"/>
    </vehicle>
    <vehicle id="trip1.3" type="type1" depart="7.00">
        <route edges="E46 E47 -E42 -E41 -E40 E66 E67 E74 -464738721 407578432#1 -341648794#0 -2385472#1 -326348924#1 -341900052 -162967452 141620517#0 141620517#1-AddedOnRampEdge 141620517#1 100871360 100871358 198358388 280269658 541602725"/>
    </vehicle>
    <vehicle id="trip3.5" type="type1" depart="7.00">
        <route edges="-E63 E52 E53 E54 E55 -E41 -E40 E66 E67 E74 -464738721 407578432#1 -341648794#0 -2385472#1 -326348924#1 -341900052 -162967452 141620517#0 141620517#1-AddedOnRampEdge 141620517#1 100871360 100871358 198358388 280269658 541602725"/>
    </vehicle>
    <vehicle id="trip6.3" type="type1" depart="7.00">
        <route edges="-E64 E50 -E44 -E43 -E42 -E41 -E40 E390 3636462 280263701 100871362 12811203 100871370#1 100871363 100871352 100871343 100871371 146070306 32456942#0 32456942#1 32456942#2 29264205 327070360 289441726"/>
    </vehicle>
    <vehicle id="trip2.2" type="type1" depart="8.00">
        <route edges="E65 -E44 -E43 -E42 -E41 -E40 E66 E67 E74 -464738721 407578432#1 -341648794#0 -2385472#1 -326348924#1 -341900052 -162967452 141620517#0 141620517#1-AddedOnRampEdge 141620517#1 100871360 100871358 198358388 280269658 541602725"/>
    </vehicle>
    <vehicle id="trip4.4" type="type1" depart="8.00">
        <route edges="-E69 -E66 E390 3636462 280263701 100871362 12811203 100871370#1 100871363 100871352 100871343 100871371 146070306 32456942#0 32456942#1 32456942#2 29264205 327070360 289441726"/>
    </vehicle>
    <vehicle id="trip5.6" type="type1" depart="8.00">
        <route edges="-E61 E54 E55 -E41 -E40 E390 3636462 280263701 100871362 12811203 100871370#1 100871363 100871352 100871343 100871371 146070306 32456942#0 32456942#1 32456942#2 29264205 327070360 289441726"/>
    </vehicle>
    <vehicle id="trip6.4" type="type1" depart="8.00">
        <route edges="-E64 E50 -E44 -E43 -E42 -E41 -E40 E390 3636462 280263701 100871362 12811203 100871370#1 100871363 100871352 100871343 100871371 146070306 32456942#0 32456942#1 32456942#2 29264205 327070360 289441726"/>
    </vehicle>
    <vehicle id="trip3.6" type="type1" depart="9.00">
        <route edges="-E63 E52 E53 E54 E55 -E41 -E40 E66 E67 E74 -464738721 407578432#1 -341648794#0 -2385472#1 -326348924#1 -341900052 -162967452 141620517#0 141620517#1-AddedOnRampEdge 141620517#1 100871360 100871358 198358388 280269658 541602725"/>
    </vehicle>
    <vehicle id="trip4.5" type="type1" depart="9.00">
        <route edges="-E69 -E66 E390 3636462 280263701 100871362 12811203 100871370#1 100871363 100871352 100871343 100871371 146070306 32456942#0 32456942#1 32456942#2 29264205 327070360 289441726"/>
    </vehicle>
    <person id="foo.1" depart="10.00">
        <walk edges="772719704#4 772719713#2 -721302669#2"/>
        <ride from="-721302669#2" to="E50" lines="taxi" group="g0"/>
    </person>
    <vehicle id="trip1.4" type="type1" depart="10.00">
        <route edges="E46 E47 -E42 -E41 -E40 E66 E67 E74 -464738721 407578432#1 -341648794#0 -2385472#1 -326348924#1 -341900052 -162967452 141620517#0 141620517#1-AddedOnRampEdge 141620517#1 100871360 100871358 198358388 280269658 541602725"/>
    </vehicle>
    <vehicle id="trip2.3" type="type1" depart="10.00">
        <route edges="E65 -E44 -E43 -E42 -E41 -E40 E66 E67 E74 -464738721 407578432#1 -341648794#0 -2385472#1 -326348924#1 -341900052 -162967452 141620517#0 141620517#1-AddedOnRampEdge 141620517#1 100871360 100871358 198358388 280269658 541602725"/>
    </vehicle>
    <vehicle id="trip5.7" type="type1" depart="10.00">
        <route edges="-E61 E54 E55 -E41 -E40 E390 3636462 280263701 100871362 12811203 100871370#1 100871363 100871352 100871343 100871371 146070306 32456942#0 32456942#1 32456942#2 29264205 327070360 289441726"/>
    </vehicle>
    <vehicle id="trip6.5" type="type1" depart="10.00">
        <route edges="-E64 E50 -E44 -E43 -E42 -E41 -E40 E390 3636462 280263701 100871362 12811203 100871370#1 100871363 100871352 100871343 100871371 146070306 32456942#0 32456942#1 32456942#2 29264205 327070360 289441726"/>
    </vehicle>
    <vehicle id="trip2.4" type="type1" depart="11.00">
        <route edges="E65 -E44 -E43 -E42 -E41 -E40 E66 E67 E74 -464738721 407578432#1 -341648794#0 -2385472#1 -326348924#1 -341900052 -162967452 141620517#0 141620517#1-AddedOnRampEdge 141620517#1 100871360 100871358 198358388 280269658 541602725"/>
    </vehicle>
    <vehicle id="trip4.6" type="type1" depart="11.00">
        <route edges="-E69 -E66 E390 3636462 280263701 100871362 12811203 100871370#1 100871363 100871352 100871343 100871371 146070306 32456942#0 32456942#1 32456942#2 29264205 327070360 289441726"/>
    </vehicle>
    <vehicle id="trip1.5" type="type1" depart="12.00">
        <route edges="E46 E47 -E42 -E41 -E40 E66 E67 E74 -464738721 407578432#1 -341648794#0 -2385472#1 -326348924#1 -341900052 -162967452 141620517#0 141620517#1-AddedOnRampEdge 141620517#1 100871360 100871358 198358388 280269658 541602725"/>
    </vehicle>
    <vehicle id="trip2.5" type="type1" depart="12.00">
        <route edges="E65 -E44 -E43 -E42 -E41 -E40 E66 E67 E74 -464738721 407578432#1 -341648794#0 -2385472#1 -326348924#1 -341900052 -162967452 141620517#0 141620517#1-AddedOnRampEdge 141620517#1 100871360 100871358 198358388 280269658 541602725"/>
    </vehicle>
    <vehicle id="trip4.7" type="type1" depart="12.00">
        <route edges="-E69 -E66 E390 3636462 280263701 100871362 12811203 100871370#1 100871363 100871352 100871343 100871371 146070306 32456942#0 32456942#1 32456942#2 29264205 327070360 289441726"/>
    </vehicle>
    <vehicle id="trip1.6" type="type1" depart="13.00">
        <route edges="E46 E47 -E42 -E41 -E40 E66 E67 E74 -464738721 407578432#1 -341648794#0 -2385472#1 -326348924#1 -341900052 -162967452 141620517#0 141620517#1-AddedOnRampEdge 141620517#1 100871360 100871358 198358388 280269658 541602725"/>
    </vehicle>
    <vehicle id="trip4.8" type="type1" depart="13.00">
        <route edges="-E69 -E66 E390 3636462 280263701 100871362 12811203 100871370#1 100871363 100871352 100871343 100871371 146070306 32456942#0 32456942#1 32456942#2 29264205 327070360 289441726"/>
    </vehicle>
    <vehicle id="trip2.6" type="type1" depart="14.00">
        <route edges="E65 -E44 -E43 -E42 -E41 -E40 E66 E67 E74 -464738721 407578432#1 -341648794#0 -2385472#1 -326348924#1 -341900052 -162967452 141620517#0 141620517#1-AddedOnRampEdge 141620517#1 100871360 100871358 198358388 280269658 541602725"/>
    </vehicle>
    <vehicle id="trip5.8" type="type1" depart="14.00">
        <route edges="-E61 E54 E55 -E41 -E40 E390 3636462 280263701 100871362 12811203 100871370#1 100871363 100871352 100871343 100871371 146070306 32456942#0 32456942#1 32456942#2 29264205 327070360 289441726"/>
    </vehicle>
    <vehicle id="trip6.6" type="type1" depart="14.00">
        <route edges="-E64 E50 -E44 -E43 -E42 -E41 -E40 E390 3636462 280263701 100871362 12811203 100871370#1 100871363 100871352 100871343 100871371 146070306 32456942#0 32456942#1 32456942#2 29264205 327070360 289441726"/>
    </vehicle>
    <vehicle id="trip1.7" type="type1" depart="15.00">
        <route edges="E46 E47 -E42 -E41 -E40 E66 E67 E74 -464738721 407578432#1 -341648794#0 -2385472#1 -326348924#1 -341900052 -162967452 141620517#0 141620517#1-AddedOnRampEdge 141620517#1 100871360 100871358 198358388 280269658 541602725"/>
    </vehicle>
    <vehicle id="trip4.9" type="type1" depart="15.00">
        <route edges="-E69 -E66 E390 3636462 280263701 100871362 12811203 100871370#1 100871363 100871352 100871343 100871371 146070306 32456942#0 32456942#1 32456942#2 29264205 327070360 289441726"/>
    </vehicle>
    <vehicle id="trip5.9" type="type1" depart="15.00">
        <route edges="-E61 E54 E55 -E41 -E40 E390 3636462 280263701 100871362 12811203 100871370#1 100871363 100871352 100871343 100871371 146070306 32456942#0 32456942#1 32456942#2 29264205 327070360 289441726"/>
    </vehicle>
    <vehicle id="trip6.7" type="type1" depart="15.00">
        <route edges="-E64 E50 -E44 -E43 -E42 -E41 -E40 E390 3636462 280263701 100871362 12811203 100871370#1 100871363 100871352 100871343 100871371 146070306 32456942#0 32456942#1 32456942#2 29264205 327070360 289441726"/>
    </vehicle>
    <vehicle id="trip1.8" type="type1" depart="16.00">
        <route edges="E46 E47 -E42 -E41 -E40 E66 E67 E74 -464738721 407578432#1 -341648794#0 -2385472#1 -326348924#1 -341900052 -162967452 141620517#0 141620517#1-AddedOnRampEdge 141620517#1 100871360 100871358 198358388 280269658 541602725"/>
    </vehicle>
    <vehicle id="trip2.7" type="type1" depart="16.00">
        <route edges="E65 -E44 -E43 -E42 -E41 -E40 E66 E67 E74 -464738721 407578432#1 -341648794#0 -2385472#1 -326348924#1 -341900052 -162967452 141620517#0 141620517#1-AddedOnRampEdge 141620517#1 100871360 100871358 198358388 280269658 541602725"/>
    </vehicle>
    <vehicle id="trip3.7" type="type1" depart="16.00">
        <route edges="-E63 E52 E53 E54 E55 -E41 -E40 E66 E67 E74 -464738721 407578432#1 -341648794#0 -2385472#1 -326348924#1 -341900052 -162967452 141620517#0 141620517#1-AddedOnRampEdge 141620517#1 100871360 100871358 198358388 280269658 541602725"/>
    </vehicle>
    <vehicle id="trip6.8" type="type1" depart="16.00">
        <route edges="-E64 E50 -E44 -E43 -E42 -E41 -E40 E390 3636462 280263701 100871362 12811203 100871370#1 100871363 100871352 100871343 100871371 146070306 32456942#0 32456942#1 32456942#2 29264205 327070360 289441726"/>
    </vehicle>
    <vehicle id="trip3.8" type="type1" depart="17.00">
        <route edges="-E63 E52 E53 E54 E55 -E41 -E40 E66 E67 E74 -464738721 407578432#1 -341648794#0 -2385472#1 -326348924#1 -341900052 -162967452 141620517#0 141620517#1-AddedOnRampEdge 141620517#1 100871360 100871358 198358388 280269658 541602725"/>
    </vehicle>
    <vehicle id="trip1.9" type="type1" depart="18.00">
        <route edges="E46 E47 -E42 -E41 -E40 E66 E67 E74 -464738721 407578432#1 -341648794#0 -2385472#1 -326348924#1 -341900052 -162967452 141620517#0 141620517#1-AddedOnRampEdge 141620517#1 100871360 100871358 198358388 280269658 541602725"/>
    </vehicle>
    <vehicle id="trip2.8" type="type1" depart="18.00">
        <route edges="E65 -E44 -E43 -E42 -E41 -E40 E66 E67 E74 -464738721 407578432#1 -341648794#0 -2385472#1 -326348924#1 -341900052 -162967452 141620517#0 141620517#1-AddedOnRampEdge 141620517#1 100871360 100871358 198358388 280269658 541602725"/>
    </vehicle>
    <vehicle id="trip6.9" type="type1" depart="18.00">
        <route edges="-E64 E50 -E44 -E43 -E42 -E41 -E40 E390 3636462 280263701 100871362 12811203 100871370#1 100871363 100871352 100871343 100871371 146070306 32456942#0 32456942#1 32456942#2 29264205 327070360 289441726"/>
    </vehicle>
    <vehicle id="trip2.9" type="type1" depart="19.00">
        <route edges="E65 -E44 -E43 -E42 -E41 -E40 E66 E67 E74 -464738721 407578432#1 -341648794#0 -2385472#1 -326348924#1 -341900052 -162967452 141620517#0 141620517#1-AddedOnRampEdge 141620517#1 100871360 100871358 198358388 280269658 541602725"/>
    </vehicle>
    <vehicle id="trip3.9" type="type1" depart="19.00">
        <route edges="-E63 E52 E53 E54 E55 -E41 -E40 E66 E67 E74 -464738721 407578432#1 -341648794#0 -2385472#1 -326348924#1 -341900052 -162967452 141620517#0 141620517#1-AddedOnRampEdge 141620517#1 100871360 100871358 198358388 280269658 541602725"/>
    </vehicle>
    <person id="foo.2" depart="20.00">
        <walk edges="772719704#4 772719713#2 -721302669#2"/>
        <ride from="-721302669#2" to="E50" lines="taxi" group="g0"/>
    </person>
    <person id="foo.3" depart="30.00">
        <walk edges="772719704#4 772719713#2 -721302669#2"/>
        <ride from="-721302669#2" to="E50" lines="taxi" group="g0"/>
    </person>
    <person id="foo.4" depart="40.00">
        <walk edges="772719704#4 772719713#2 -721302669#2"/>
        <ride from="-721302669#2" to="E50" lines="taxi" group="g0"/>
    </person>
    <person id="foo.5" depart="50.00">
        <walk edges="772719704#4 772719713#2 -721302669#2"/>
        <ride from="-721302669#2" to="E50" lines="taxi" group="g0"/>
    </person>
    <person id="foo.6" depart="60.00">
        <walk edges="772719704#4 772719713#2 -721302669#2"/>
        <ride from="-721302669#2" to="E50" lines="taxi" group="g0"/>
    </person>
    <person id="foo.7" depart="70.00">
        <walk edges="772719704#4 772719713#2 -721302669#2"/>
        <ride from="-721302669#2" to="E50" lines="taxi" group="g0"/>
    </person>
    <person id="foo.8" depart="80.00">
        <walk edges="772719704#4 772719713#2 -721302669#2"/>
        <ride from="-721302669#2" to="E50" lines="taxi" group="g0"/>
    </person>
    <person id="foo.9" depart="90.00">
        <walk edges="772719704#4 772719713#2 -721302669#2"/>
        <ride from="-721302669#2" to="E50" lines="taxi" group="g0"/>
    </person>
    <person id="foo.10" depart="100.00">
        <walk edges="772719704#4 772719713#2 -721302669#2"/>
        <ride from="-721302669#2" to="E50" lines="taxi" group="g0"/>
    </person>
    <person id="foo.11" depart="110.00">
        <walk edges="772719704#4 772719713#2 -721302669#2"/>
        <ride from="-721302669#2" to="E50" lines="taxi" group="g0"/>
    </person>
    <person id="foo.12" depart="120.00">
        <walk edges="772719704#4 772719713#2 -721302669#2"/>
        <ride from="-721302669#2" to="E50" lines="taxi" group="g0"/>
    </person>
    <person id="foo.13" depart="130.00">
        <walk edges="772719704#4 772719713#2 -721302669#2"/>
        <ride from="-721302669#2" to="E50" lines="taxi" group="g0"/>
    </person>
    <person id="foo.14" depart="140.00">
        <walk edges="772719704#4 772719713#2 -721302669#2"/>
        <ride from="-721302669#2" to="E50" lines="taxi" group="g0"/>
    </person>
    <person id="foo.15" depart="150.00">
        <walk edges="772719704#4 772719713#2 -721302669#2"/>
        <ride from="-721302669#2" to="E50" lines="taxi" group="g0"/>
    </person>
    <person id="foo.16" depart="160.00">
        <walk edges="772719704#4 772719713#2 -721302669#2"/>
        <ride from="-721302669#2" to="E50" lines="taxi" group="g0"/>
    </person>
    <person id="foo.17" depart="170.00">
        <walk edges="772719704#4 772719713#2 -721302669#2"/>
        <ride from="-721302669#2" to="E50" lines="taxi" group="g0"/>
    </person>
    <person id="foo.18" depart="180.00">
        <walk edges="772719704#4 772719713#2 -721302669#2"/>
        <ride from="-721302669#2" to="E50" lines="taxi" group="g0"/>
    </person>
    <person id="foo.19" depart="190.00">
        <walk edges="772719704#4 772719713#2 -721302669#2"/>
        <ride from="-721302669#2" to="E50" lines="taxi" group="g0"/>
    </person>
    <person id="foo.20" depart="200.00">
        <walk edges="772719704#4 772719713#2 -721302669#2"/>
        <ride from="-721302669#2" to="E50" lines="taxi" group="g0"/>
    </person>
    <person id="foo.21" depart="210.00">
        <walk edges="772719704#4 772719713#2 -721302669#2"/>
        <ride from="-721302669#2" to="E50" lines="taxi" group="g0"/>
    </person>
    <person id="foo.22" depart="220.00">
        <walk edges="772719704#4 772719713#2 -721302669#2"/>
        <ride from="-721302669#2" to="E50" lines="taxi" group="g0"/>
    </person>
    <person id="foo.23" depart="230.00">
        <walk edges="772719704#4 772719713#2 -721302669#2"/>
        <ride from="-721302669#2" to="E50" lines="taxi" group="g0"/>
    </person>
    <person id="foo.24" depart="240.00">
        <walk edges="772719704#4 772719713#2 -721302669#2"/>
        <ride from="-721302669#2" to="E50" lines="taxi" group="g0"/>
    </person>
    <person id="foo.25" depart="250.00">
        <walk edges="772719704#4 772719713#2 -721302669#2"/>
        <ride from="-721302669#2" to="E50" lines="taxi" group="g0"/>
    </person>
    <person id="random.1" depart="250.00">
        <ride from="504566810#1" to="-119158885" lines="taxi"/>
    </person>
    <person id="foo.26" depart="260.00">
        <walk edges="772719704#4 772719713#2 -721302669#2"/>
        <ride from="-721302669#2" to="E50" lines="taxi" group="g0"/>
    </person>
    <person id="foo.27" depart="270.00">
        <walk edges="772719704#4 772719713#2 -721302669#2"/>
        <ride from="-721302669#2" to="E50" lines="taxi" group="g0"/>
    </person>
    <person id="foo.28" depart="280.00">
        <walk edges="772719704#4 772719713#2 -721302669#2"/>
        <ride from="-721302669#2" to="E50" lines="taxi" group="g0"/>
    </person>
    <person id="foo.29" depart="290.00">
        <walk edges="772719704#4 772719713#2 -721302669#2"/>
        <ride from="-721302669#2" to="E50" lines="taxi" group="g0"/>
    </person>
    <person id="foo.30" depart="300.00">
        <walk edges="772719704#4 772719713#2 -721302669#2"/>
        <ride from="-721302669#2" to="E50" lines="taxi" group="g0"/>
    </person>
    <person id="foo.31" depart="310.00">
        <walk edges="772719704#4 772719713#2 -721302669#2"/>
        <ride from="-721302669#2" to="E50" lines="taxi" group="g0"/>
    </person>
    <person id="foo.32" depart="320.00">
        <walk edges="772719704#4 772719713#2 -721302669#2"/>
        <ride from="-721302669#2" to="E50" lines="taxi" group="g0"/>
    </person>
    <person id="foo.33" depart="330.00">
        <walk edges="772719704#4 772719713#2 -721302669#2"/>
        <ride from="-721302669#2" to="E50" lines="taxi" group="g0"/>
    </person>
    <person id="foo.34" depart="340.00">
        <walk edges="772719704#4 772719713#2 -721302669#2"/>
        <ride from="-721302669#2" to="E50" lines="taxi" group="g0"/>
    </person>
    <person id="foo.35" depart="350.00">
        <walk edges="772719704#4 772719713#2 -721302669#2"/>
        <ride from="-721302669#2" to="E50" lines="taxi" group="g0"/>
    </person>
    <person id="foo.36" depart="360.00">
        <walk edges="772719704#4 772719713#2 -721302669#2"/>
        <ride from="-721302669#2" to="E50" lines="taxi" group="g0"/>
    </person>
    <person id="foo.37" depart="370.00">
        <walk edges="772719704#4 772719713#2 -721302669#2"/>
        <ride from="-721302669#2" to="E50" lines="taxi" group="g0"/>
    </person>
    <person id="foo.38" depart="380.00">
        <walk edges="772719704#4 772719713#2 -721302669#2"/>
        <ride from="-721302669#2" to="E50" lines="taxi" group="g0"/>
    </person>
    <person id="foo.39" depart="390.00">
        <walk edges="772719704#4 772719713#2 -721302669#2"/>
        <ride from="-721302669#2" to="E50" lines="taxi" group="g0"/>
    </person>
    <person id="foo.40" depart="400.00">
        <walk edges="772719704#4 772719713#2 -721302669#2"/>
        <ride from="-721302669#2" to="E50" lines="taxi" group="g0"/>
    </person>
    <person id="foo.41" depart="410.00">
        <walk edges="772719704#4 772719713#2 -721302669#2"/>
        <ride from="-721302669#2" to="E50" lines="taxi" group="g0"/>
    </person>
    <person id="foo.42" depart="420.00">
        <walk edges="772719704#4 772719713#2 -721302669#2"/>
        <ride from="-721302669#2" to="E50" lines="taxi" group="g0"/>
    </person>
    <person id="foo.43" depart="430.00">
        <walk edges="772719704#4 772719713#2 -721302669#2"/>
        <ride from="-721302669#2" to="E50" lines="taxi" group="g0"/>
    </person>
    <person id="foo.44" depart="440.00">
        <walk edges="772719704#4 772719713#2 -721302669#2"/>
        <ride from="-721302669#2" to="E50" lines="taxi" group="g0"/>
    </person>
    <person id="foo.45" depart="450.00">
        <walk edges="772719704#4 772719713#2 -721302669#2"/>
        <ride from="-721302669#2" to="E50" lines="taxi" group="g0"/>
    </person>
    <person id="foo.46" depart="460.00">
        <walk edges="772719704#4 772719713#2 -721302669#2"/>
        <ride from="-721302669#2" to="E50" lines="taxi" group="g0"/>
    </person>
    <person id="foo.47" depart="470.00">
        <walk edges="772719704#4 772719713#2 -721302669#2"/>
        <ride from="-721302669#2" to="E50" lines="taxi" group="g0"/>
    </person>
    <person id="foo.48" depart="480.00">
        <walk edges="772719704#4 772719713#2 -721302669#2"/>
        <ride from="-721302669#2" to="E50" lines="taxi" group="g0"/>
    </person>
    <person id="foo.49" depart="490.00">
        <walk edges="772719704#4 772719713#2 -721302669#2"/>
        <ride from="-721302669#2" to="E50" lines="taxi" group="g0"/>
    </person>
    <person id="foo.50" depart="500.00">
        <walk edges="772719704#4 772719713#2 -721302669#2"/>
        <ride from="-721302669#2" to="E50" lines="taxi" group="g0"/>
    </person>