<additional>
    <vType id="shuttle" vClass="taxi" accel="0.8" decel="4.5" sigma="0.99" length="5" maxSpeed="70">
        <param key="has.taxi.device" value="true"/>
        <param key="device.taxi.pickUpDuration" value="0"/>
        <param key="device.taxi.dropOffDuration" value="60"/>
        <param key="device.taxi.parking" value="false"/>
    </vType>

    <routes>
        <route id="depot" color="1,1,0" edges="depot2"/>
    </routes>

</additional>


